data/input/matpower/sample_381.m
function mpc = powergrid
mpc.version = '2';
mpc.baseMVA = 100;
mpc.bus = [
	1	1	360.221864	198.417344	0	-400	1	1.038865	18.185889	130	1	1.100000	0.900000;
	2	1	28.823722	17.819242	0	0	1	1.091707	19.353555	130	1	1.100000	0.900000;
	3	1	133.043938	-53.404527	0	0	1	1.037184	21.932235	130	1	1.100000	0.900000;
	4	1	463.276500	210.583564	0	0	1	1.017955	13.994892	130	1	1.100000	0.900000;
	5	1	26.785509	2.470194	0	0	1	0.964974	-7.802695	130	1	1.100000	0.900000;
	6	1	110.691251	43.052543	0	0	1	0.978399	-10.034668	130	1	1.100000	0.900000;
	7	1	584.142426	352.074479	0	0	1	0.929439	-8.703158	130	1	1.100000	0.900000;
	8	1	6.918559	3.279030	0	0	1	1.030735	-3.929604	130	1	1.100000	0.900000;
	9	1	191.912377	105.121097	0	0	1	1.037202	-5.114039	130	1	1.100000	0.900000;
	10	1	43.041002	5.816059	0	0	1	1.085102	1.906610	220	1	1.100000	0.900000;
	11	1	384.153764	186.195716	0	0	1	0.992289	-5.443452	220	1	1.100000	0.900000;
	12	1	560.426225	211.865856	0	-400	1	1.003266	14.825059	400	1	1.100000	0.900000;
	13	1	50.860140	-28.514965	0	0	1	1.053966	14.117547	400	1	1.100000	0.900000;
	14	1	30.629517	4.562396	0	0	1	1.107180	-1.156658	400	1	1.100000	0.900000;
	15	1	201.467105	109.351136	0	0	1	1.038340	-0.333730	400	1	1.100000	0.900000;
	16	1	167.829159	-117.139054	0	0	1	1.035780	-2.318457	400	1	1.100000	0.900000;
	17	1	106.482737	63.926704	0	0	1	1.022845	-2.296383	400	1	1.100000	0.900000;
	18	1	325.641386	224.699893	0	0	1	1.007889	-1.423420	400	1	1.100000	0.900000;
	19	1	254.385035	-144.414266	0	0	1	1.051862	-2.197511	400	1	1.100000	0.900000;
	20	1	135.132152	31.073847	0	0	1	1.058622	-7.233055	400	1	1.100000	0.900000;
	21	1	438.891785	254.749319	0	0	1	1.030220	-8.652689	400	1	1.100000	0.900000;
	22	1	202.081929	145.272623	0	0	1	1.013735	-7.001277	400	1	1.100000	0.900000;
	23	1	0	0	0	-100	1	0.981938	19.240254	400	1	1.100000	0.900000;
	24	1	0	0	0	0	1	1.057031	20.989123	130	1	1.100000	0.900000;
	25	1	0	0	0	0	1	1.004461	27.034330	130	1	1.100000	0.900000;
	26	1	0	0	0	0	1	0.973565	18.852403	400	1	1.100000	0.900000;
	27	1	0	0	0	0	1	1.045566	12.304585	400	1	1.100000	0.900000;
	28	1	0	0	0	0	1	0.992372	12.721355	400	1	1.100000	0.900000;
	29	1	0	0	0	0	1	1.077511	4.499410	400	1	1.100000	0.900000;
	30	1	0	0	0	0	1	1.038340	-0.333730	400	1	1.100000	0.900000;
	31	1	0	0	0	0	1	1.055565	4.054958	400	1	1.100000	0.900000;
	32	1	0	0	0	0	1	1.076928	-5.686040	400	1	1.100000	0.900000;
	33	1	0	0	0	0	1	1.076928	-5.686040	400	1	1.100000	0.900000;
	34	1	0	0	0	0	1	0.989339	-4.035251	400	1	1.100000	0.900000;
	35	1	0	0	0	0	1	1.191776	4.043573	400	1	1.100000	0.900000;
	36	1	0	0	0	0	1	1.043825	-3.084946	400	1	1.100000	0.900000;
	37	1	0	0	0	0	1	1.048431	-4.280851	400	1	1.100000	0.900000;
	38	2	0	0	0	0	1	0	19.353555	15	1	1.100000	0.900000;
	39	2	0	0	0	0	1	1	27.326261	15	1	1.100000	0.900000;
	40	2	0	0	0	0	1	0	20.989123	15	1	1.100000	0.900000;
	41	2	0	0	0	0	1	1	30.280293	15	1	1.100000	0.900000;
	42	2	0	0	0	0	1	1	29.156685	15	1	1.100000	0.900000;
	43	2	0	0	0	0	1	0	-10.034668	15	1	1.100000	0.900000;
	44	2	0	0	0	0	1	1	5.137090	15	1	1.100000	0.900000;
	45	2	0	0	0	0	1	1	-4.840690	15	1	1.100000	0.900000;
	46	2	0	0	0	0	1	1	24.600063	15	1	1.100000	0.900000;
	47	2	0	0	0	0	1	1	24.938740	15	1	1.100000	0.900000;
	48	2	0	0	0	0	1	1	17.655242	15	1	1.100000	0.900000;
	49	2	0	0	0	0	1	0	4.054958	15	1	1.100000	0.900000;
	50	2	0	0	0	0	1	0	-1.156658	15	1	1.100000	0.900000;
	51	2	0	0	0	0	1	1	5.054380	15	1	1.100000	0.900000;
	52	3	0	0	0	0	1	1	0	15	1	1.000000	1.000000;
	53	2	0	0	0	0	1	1	4.127873	15	1	1.100000	0.900000;
	54	2	0	0	0	0	1	0	-2.197511	15	1	1.100000	0.900000;
	55	2	0	0	0	0	1	1	3.121134	15	1	1.100000	0.900000;
	56	2	0	0	0	0	1	0	-8.652689	15	1	1.100000	0.900000;
	57	2	0	0	0	0	1	1	-1.482097	15	1	1.100000	0.900000;
	58	2	0	0	0	0	1	0	-7.001277	15	1	1.100000	0.900000;
	59	2	0	0	0	0	1	1	20.402016	15	1	1.100000	0.900000;
	60	2	0	0	0	0	1	0	14.117547	15	1	1.100000	0.900000;
	61	2	0	0	0	0	1	0	-7.802695	15	1	1.100000	0.900000;
];
mpc.gen = [
	52	0	0	1840.000000	-540.000000	1	1	1	2800.000000	10.000000	0	0	0	0	0	0	0	0	0	0	0;
	38	0	0	720.000000	-720.000000	0	100	0	720.000000	10.000000	0	0	0	0	0	0	0	0	0	0	0;
	39	390.000000	0	540.000000	-540.000000	1	100	1	540.000000	10.000000	0	0	0	0	0	0	0	0	0	0	0;
	40	0	0	630.000000	-630.000000	0	100	0	630.000000	10.000000	0	0	0	0	0	0	0	0	0	0	0;
	41	227.499999	0	540.000000	-540.000000	1	100	1	540.000000	10.000000	0	0	0	0	0	0	0	0	0	0	0;
	42	443.736035	0	325.000000	-225.000000	1	100	1	475.000000	10.000000	0	0	0	0	0	0	0	0	0	0	0;
	43	0	0	560.000000	-360.000000	0	100	0	560.000000	10.000000	0	0	0	0	0	0	0	0	0	0	0;
	44	296.448286	0	360.000000	-280.000000	1	100	1	380.000000	10.000000	0	0	0	0	0	0	0	0	0	0	0;
	45	59.153765	0	965.000000	-765.000000	1	100	1	965.000000	10.000000	0	0	0	0	0	0	0	0	0	0	0;
	46	650.000000	0	900.000000	-900.000000	1	100	1	900.000000	10.000000	0	0	0	0	0	0	0	0	0	0	0;
	47	520.000000	0	720.000000	-720.000000	1	100	1	720.000000	10.000000	0	0	0	0	0	0	0	0	0	0	0;
	48	195.000000	0	570.000000	-370.000000	1	100	1	570.000000	10.000000	0	0	0	0	0	0	0	0	0	0	0;
	49	0	0	515.000000	-415.000000	0	100	0	575.000000	10.000000	0	0	0	0	0	0	0	0	0	0	0;
	50	0	0	570.000000	-570.000000	0	100	0	0.000000	-0.000000	0	0	0	0	0	0	0	0	0	0	0;
	51	455.000000	0	630.000000	-630.000000	1	100	1	630.000000	10.000000	0	0	0	0	0	0	0	0	0	0	0;
	53	390.000000	0	580.000000	-540.000000	1	100	1	540.000000	10.000000	0	0	0	0	0	0	0	0	0	0	0;
	54	0	0	630.000000	-630.000000	0	100	0	630.000000	10.000000	0	0	0	0	0	0	0	0	0	0	0;
	55	455.000000	0	630.000000	-630.000000	1	100	1	630.000000	10.000000	0	0	0	0	0	0	0	0	0	0	0;
	56	0	0	540.000000	-540.000000	0	100	0	540.000000	10.000000	0	0	0	0	0	0	0	0	0	0	0;
	57	390.000000	0	540.000000	-540.000000	1	100	1	540.000000	10.000000	0	0	0	0	0	0	0	0	0	0	0;
	58	0	0	540.000000	-540.000000	0	100	0	540.000000	10.000000	0	0	0	0	0	0	0	0	0	0	0;
	59	325.000000	0	520.000000	-450.000000	1	100	1	560.000000	10.000000	0	0	0	0	0	0	0	0	0	0	0;
	60	0	0	4000.000000	-2050.000000	0	100	0	4500.000000	10.000000	0	0	0	0	0	0	0	0	0	0	0;
	61	0	0	250.000000	-250.000000	0	100	0	0.000000	-0.000000	0	0	0	0	0	0	0	0	0	0	0;
];
mpc.branch = [
	1	3	0.010000	0.070000	0.013804	175.000000	250	250	0	0	1	-360	360;
	1	3	0.010000	0.070000	0.013804	175.000000	250	250	0	0	1	-360	360;
	2	24	0.014024	0.090000	0.018052	175.000000	250	250	0	0	1	-360	360;
	2	24	0.014024	0.090000	0.018052	175.000000	250	250	0	0	1	-360	360;
	3	24	0.006982	0.050000	0.010088	175.000000	250	250	0	0	1	-360	360;
	3	24	0.006982	0.050000	0.010088	175.000000	250	250	0	0	1	-360	360;
	25	4	0.030000	0.200000	0.030263	175.000000	250	250	0	0	1	-360	360;
	25	4	0.030000	0.200000	0.030263	175.000000	250	250	0	0	1	-360	360;
	5	7	0.010000	0.060000	0.012211	175.000000	250	250	0	0	1	-360	360;
	5	7	0.010000	0.060000	0.012211	175.000000	250	250	0	0	1	-360	360;
	5	9	0.014970	0.120000	0.024954	175.000000	250	250	0	0	1	-360	360;
	5	9	0.014970	0.120000	0.024954	175.000000	250	250	0	0	1	-360	360;
	6	8	0.037988	0.280000	0.059995	175.000000	250	250	0	0	1	-360	360;
	6	8	0.037988	0.280000	0.059995	175.000000	250	250	0	0	1	-360	360;
	6	9	0.050000	0.300000	0.059995	175.000000	250	250	0	0	1	-360	360;
	7	8	0.010000	0.080000	0.015928	175.000000	250	250	0	0	1	-360	360;
	7	8	0.010000	0.080000	0.015928	175.000000	250	250	0	0	1	-360	360;
	10	11	0.012004	0.090000	0.015205	250.000000	250	250	0	0	1	-360	360;
	10	11	0.012004	0.090000	0.015205	250.000000	250	250	0	0	1	-360	360;
	26	23	0.001000	0.008000	0.201062	700.000000	250	250	0	0	1	-360	360;
	26	27	0.006000	0.060000	1.799488	700.000000	250	250	0	0	1	-360	360;
	26	28	0.004000	0.040000	1.201344	700.000000	250	250	0	0	1	-360	360;
	26	12	0.005000	0.045000	1.402400	700.000000	250	250	0	0	1	-360	360;
	23	28	0.004000	0.035000	1.050560	700.000000	250	250	0	0	1	-360	360;
	23	12	0.005000	0.050000	1.497920	700.000000	250	250	0	0	1	-360	360;
	27	29	0.004000	0.040000	1.201344	700.000000	250	250	0	0	1	-360	360;
	27	30	0.010000	0.100000	3.000864	700.000000	250	250	0	0	0	-360	360;
	30	15	0	-0.040000	0	700.000000	250	250	0	0	1	-360	360;
	28	31	0.004000	0.040000	1.201344	700.000000	250	250	0	0	1	-360	360;
	28	31	0.004000	0.040000	1.201344	700.000000	250	250	0	0	1	-360	360;
	31	29	0.001000	0.010000	0.301594	700.000000	250	250	0	0	1	-360	360;
	31	32	0.006000	0.080000	2.397664	700.000000	250	250	0	0	1	-360	360;
	32	14	0	-0.040000	0	700.000000	250	250	0	0	1	-360	360;
	31	33	0.006000	0.080000	2.397664	700.000000	250	250	0	0	1	-360	360;
	33	14	0	-0.040000	0	700.000000	250	250	0	0	1	-360	360;
	29	34	0.010000	0.066669	2.000576	700.000000	250	250	0	0	1	-360	360;
	34	15	0	-0.026669	0	700.000000	250	250	0	0	1	-360	360;
	29	35	0.006000	0.080000	2.397664	700.000000	250	250	0	0	1	-360	360;
	35	36	0	-0.030000	0	700.000000	250	250	0	0	0	-360	360;
	14	36	0.003000	0.030000	0.899744	700.000000	250	250	0	0	1	-360	360;
	14	20	0.006000	0.045000	1.301888	700.000000	250	250	0	0	1	-360	360;
	15	16	0.002000	0.015000	0.497632	700.000000	250	250	0	0	1	-360	360;
	15	36	0.002000	0.020000	0.598176	700.000000	250	250	0	0	1	-360	360;
	16	36	0.001000	0.010000	0.301594	700.000000	250	250	0	0	1	-360	360;
	16	17	0.001000	0.010000	0.301594	700.000000	250	250	0	0	1	-360	360;
	16	18	0.002000	0.020000	0.598176	700.000000	250	250	0	0	1	-360	360;
	36	37	0.002000	0.020000	0.598176	700.000000	250	250	0	0	1	-360	360;
	36	37	0.002000	0.020000	0.598176	700.000000	250	250	0	0	1	-360	360;
	37	19	0.004000	0.040000	1.201344	700.000000	250	250	0	0	1	-360	360;
	37	19	0.004000	0.040000	1.201344	700.000000	250	250	0	0	1	-360	360;
	37	21	0.011000	0.080000	2.397664	700.000000	250	250	0	0	1	-360	360;
	17	18	0.001000	0.015000	0.497632	700.000000	250	250	0	0	1	-360	360;
	20	21	0.002000	0.020000	0.598176	700.000000	250	250	0	0	1	-360	360;
	21	22	0.003000	0.030000	0.899744	700.000000	250	250	0	0	1	-360	360;
	21	22	0.003000	0.030000	0.899744	700.000000	250	250	0	0	1	-360	360;
	12	13	0.003000	0.030000	3.000864	700.000000	250	250	0	0	1	-360	360;
	12	13	0.003000	0.030000	3.000864	700.000000	250	250	0	0	1	-360	360;
	2	38	0	0.018750	0	800	250	250	0	0	1	-360	360;
	3	39	0	0.025000	0	600	250	250	0	0	1	-360	360;
	24	40	0	0.021429	0	700	250	250	0	0	1	-360	360;
	25	41	0	0.025000	0	600	250	250	0	0	1	-360	360;
	4	42	0	0.060000	0	1250	250	250	0	0	1	-360	360;
	6	43	0	0.037500	0	400	250	250	0	0	1	-360	360;
	7	44	0	0.075000	0	1200	250	250	0	0	1	-360	360;
	11	45	0	0.017647	0	850	250	250	0	0	1	-360	360;
	26	46	0	0.015000	0	1000	250	250	0	0	1	-360	360;
	23	47	0	0.018750	0	800	250	250	0	0	1	-360	360;
	27	48	0	0.050000	0	300	250	250	0	0	1	-360	360;
	31	49	0	0.042857	0	1350	250	250	0	0	1	-360	360;
	14	50	0	0.017391	0	575	250	250	0	0	1	-360	360;
	15	51	0	0.021429	0	700	250	250	0	0	1	-360	360;
	18	52	0	0.025000	0	600	250	250	0	0	1	-360	360;
	18	53	0	0.025000	0	600	250	250	0	0	1	-360	360;
	19	54	0	0.021429	0	700	250	250	0	0	1	-360	360;
	19	55	0	0.021429	0	700	250	250	0	0	1	-360	360;
	21	56	0	0.025000	0	600	250	250	0	0	1	-360	360;
	22	57	0	0.025000	0	600	250	250	0	0	1	-360	360;
	22	58	0	0.025000	0	600	250	250	0	0	1	-360	360;
	12	59	0	0.030000	0	500	250	250	0	0	1	-360	360;
	13	60	0	0.003333	0	4500	250	250	0	0	1	-360	360;
	26	1	0	0.008000	0	1250	250	250	0.892860	0	1	-360	360;
	23	2	0	0.008000	0	1250	250	250	0.892860	0	1	-360	360;
	28	4	0	0.012000	0	833.300000	250	250	0.934580	0	1	-360	360;
	31	10	0	0.012000	0	833.300000	250	250	0.952380	0	1	-360	360;
	36	8	0	0.010000	0	1000	250	250	0	0	1	-360	360;
	36	8	0	0.010000	0	1000	250	250	0	0	1	-360	360;
	37	9	0	0.010000	0	1000	250	250	0	0	1	-360	360;
	37	9	0	0.010000	0	1000	250	250	0	0	1	-360	360;
	5	61	0	0.025000	0	1200	250	250	0	0	1	-360	360;
];
